/*--------------------------------*- C++ -*----------------------------------*\
| =========                 |                                                 |
| \\      /  F ield         | OpenFOAM: The Open Source CFD Toolbox           |
|  \\    /   O peration     | Version:  2512                                  |
|   \\  /    A nd           | Website:  www.openfoam.com                      |
|    \\/     M anipulation  |                                                 |
\*---------------------------------------------------------------------------*/
FoamFile
{
    version     2.0;
    format      ascii;
    arch        "LSB;label=32;scalar=64";
    class       polyBoundaryMesh;
    location    "constant/polyMesh";
    object      boundary;
}
// * * * * * * * * * * * * * * * * * * * * * * * * * * * * * * * * * * * * * //

6
(
    inlet
    {
        type            patch;
        nFaces          300;
        startFace       278528;
    }
    outlet
    {
        type            patch;
        nFaces          300;
        startFace       278828;
    }
    ground
    {
        type            wall;
        inGroups        1(wall);
        nFaces          1166;
        startFace       279128;
    }
    topAndSides
    {
        type            symmetry;
        inGroups        1(symmetry);
        nFaces          1500;
        startFace       280294;
    }
    body
    {
        type            wall;
        inGroups        1(wall);
        nFaces          10248;
        startFace       281794;
    }
    tires
    {
        type            wall;
        inGroups        1(wall);
        nFaces          1992;
        startFace       292042;
    }
)

// ************************************************************************* //
