/*--------------------------------*- C++ -*----------------------------------*\
  =========                 |
  \\      /  F ield         | OpenFOAM: The Open Source CFD Toolbox
   \\    /   O peration     | Website:  https://openfoam.org
    \\  /    A nd           | Version:  11
     \\/     M anipulation  |
\*---------------------------------------------------------------------------*/
FoamFile
{
    version     2.0;
    format      ascii;
    class       dictionary;
    object      snappyHexMeshDict;
}
// * * * * * * * * * * * * * * * * * * * * * * * * * * * * * * * * * * * * * //

castellatedMesh true;
snap            true;
addLayers       true;

mergeTolerance 1e-6;

geometry
{
    
    body.stl
    {
        type triSurfaceMesh;
        name body;
    }
    tires.stl
    {
        type triSurfaceMesh;
        name tires;
    }
};

castellatedMeshControls
{
    maxLocalCells 1000000;
    maxGlobalCells 5000000;
    minRefinementCells 10;
    maxLoadUnbalance 0.10;
    nCellsBetweenLevels 3;

    features
    (
        // eSmack等でeMeshを抽出した場合はここに書く
    );

    refinementSurfaces
    {
        
        body
        {
            level (4 5);
        }
        tires
        {
            level (4 5);
        }
    }

    resolveFeatureAngle 30;

    refinementRegions
    {
    }

    locationInMesh (-4.5123 2.5123 3.5123); // 注意: 対象物体の内部にならないよう調整必要
    allowFreeStandingZoneFaces true;
}

snapControls
{
    nSmoothPatch 3;
    tolerance 2.0;
    nSolveIter 30;
    nRelaxIter 5;
}

addLayersControls
{
    relativeSizes true;
    layers
    {
        
        body
        {
            nSurfaceLayers 3;
        }
        tires
        {
            nSurfaceLayers 3;
        }
    }
    expansionRatio 1.3;
    finalLayerThickness 0.5;
    minThickness 0.1;
    nGrow 0;
    featureAngle 60;
    nRelaxIter 3;
    nSmoothSurfaceNormals 1;
    nSmoothNormals 3;
    nSmoothThickness 10;
    maxFaceThicknessRatio 0.5;
    maxThicknessToMedialRatio 0.3;
    minMedialAxisAngle 90;
    nBufferCellsNoExtrude 0;
    nLayerIter 50;
}

meshQualityControls
{
    maxNonOrtho 65;
    maxBoundarySkewness 20;
    maxInternalSkewness 4;
    maxConcave 80;
    minVol 1e-13;
    minTetQuality -1e+30;
    minArea -1;
    minTwist 0.05;
    minDeterminant 0.001;
    minFaceWeight 0.05;
    minVolRatio 0.01;
    triangleTwist -1;
    minTriangleTwist -1;
    nSmoothScale 4;
    errorReduction 0.75;
}

debug 0;
// ************************************************************************* //
